Circuit: * Z:\home\moinocencio\Universidade\E4\Pratica\Comparador\DCSweep.asc

Direct Newton iteration failed to find .op point.  (Use ".option noopiter" to skip.)
Starting Gmin stepping
Gmin = 10
Gmin = 1.07374
Gmin = 0.115292
Gmin = 0.0123794
Gmin = 0.00132923
Gmin = 0.000142725
Gmin = 1.5325e-005
Gmin = 1.6455e-006
Gmin = 1.76685e-007
Gmin = 1.89714e-008
Gmin = 2.03704e-009
Gmin = 2.18725e-010
Gmin = 2.34854e-011
Gmin = 2.52173e-012
Gmin = 2.70769e-013
Gmin = 0
Gmin stepping succeeded in finding the operating point.


Date: Thu Apr 12 14:32:10 2018
Total elapsed time: 0.090 seconds.

tnom = 27
temp = 27
method = trap
totiter = 825
traniter = 0
tranpoints = 0
accept = 0
rejected = 0
matrix size = 29
fillins = 11
solver = Alternate
Thread vector: 17.8/10.2[3] 0.0/0.0[0] 3.3/2.7[3] 0.9/1.8[1]  2592/500
Matrix Compiler1:     122 opcodes  1.2/1.0/[0.7]
Matrix Compiler2: 3.50 KB object code size  1.0/1.2/[0.8]

