Circuit: * Z:\home\moinocencio\Universidade\E4\Pratica\Comparador\Draft1.asc


Date: Thu Apr 12 14:31:38 2018
Total elapsed time: 0.834 seconds.

tnom = 27
temp = 27
method = trap
totiter = 636
traniter = 0
tranpoints = 0
accept = 0
rejected = 0
matrix size = 19
fillins = 15
solver = Alternate
Thread vector: 13.8/7.7[2] 0.0/0.0[0] 2.3/2.1[2] 0.9/1.6[1]  2592/500
Matrix Compiler1: 2.36 KB object code size  1.6/0.9/[0.8]
Matrix Compiler2: 2.51 KB object code size  1.2/0.9/[0.8]

